13

  C    0.00000    0.00000    0.00000
  O    3.34635    0.00000    0.00000
  O   -0.66813    0.00000   -1.02095
  C   -0.57293    0.00186    1.33845
  Si   -2.43010    0.03819    1.53053
  H   -3.06720   -0.91327    0.58700
  H   -3.02860    1.00341    0.57574
  H   -2.74314    0.04313    2.98248
  H    0.11582   -0.02196    2.17830
  C    3.95158    0.00094   -1.29133
  H    5.02342    0.07675   -1.11429
  H    3.44908    0.71195   -1.95029
  H    3.62906   -0.86955   -1.86843
13

  C    0.00000    0.00000    0.00000
  O    1.16467    0.00000    0.00000
  C   -1.31315    0.00000   -0.03007
  Si   -2.24437   -0.00018   -1.63321
  H   -1.26129   -0.00084   -2.74508
  H   -3.38808    0.94663   -1.58270
  H   -3.38931   -0.94540   -1.58157
  H   -1.81909    0.00010    0.93006
  O   -0.73725    0.00498    1.12655
  C    0.01185    0.01268    2.34007
  H   -0.72328    0.09183    3.13960
  H    0.83776    0.72413    2.27687
  H    0.67214   -0.85698    2.39057
