13

  C    0.00000    0.00000    0.00000
  O    1.34635    0.00000    0.00000
  O   -0.63776    0.00000   -0.97454
  C   -0.51688    0.00563    1.20750
  Si   -2.36027    0.05863    1.39817
  H   -2.98017   -1.13789    0.77627
  H   -2.90955    1.28671    0.76796
  H   -2.67312    0.07341    2.85038
  H    0.17081   -0.02680    2.04646
  C    1.95158    0.00314   -1.29133
  H    3.02087    0.11073   -1.11528
  H    1.57110    0.83211   -1.89160
  H    1.74759   -0.93466   -1.81453
